349

N    0    -6.19700000    12.24400000
C    0    -4.90900000    12.61700000
C    0    -4.05700000    11.39900000
O    0    -3.33200000    11.32800000
C    0    -4.14800000    13.58800000
C    0    -2.72100000    13.89400000
C    0    -2.33300000    14.65000000
C    0    -1.50100000    13.41800000
C    0    -0.43600000    13.92200000
C    0    -1.30400000    12.58800000
N    0    -0.95800000    14.69600000
C    0    0.90000000    13.65400000
C    0    0.03700000    12.32900000
C    0    1.12100000    12.82900000
H    0    -0.41800000    15.20800000
N    0    -4.14300000    10.43800000
C    0    -3.35200000    9.21700000
C    0    -3.95600000    8.28600000
O    0    -3.20415603    7.66926157
C    0    -3.14900000    8.52100000
C    0    -2.35500000    7.21900000
O    0    -2.27600000    9.39400000
H    0    -4.75800000    10.55300000
H    0    -2.10300000    9.02600000
N    0    -3.06200000    9.42800000
C    0    -1.64000000    9.20500000
C    0    -1.45800000    7.80600000
O    0    -0.75800000    7.60800000
C    0    -0.79400000    9.39900000
C    0    0.72000000    9.38200000
O    0    1.25100000    8.51700000
O    0    1.37000000    10.31800000
N    0    -2.11300000    6.85000000
C    0    -2.04500000    5.46500000
C    0    -2.64400000    5.31300000
O    0    -2.03180647    4.65340001
C    0    -2.76000000    4.53400000
C    0    -2.69100000    3.07800000
C    0    -2.17900000    4.68800000
H    0    -2.66700000    7.09300000
N    0    -0.26700000    6.20000000
C    0    0.77000000    5.22400000
C    0    0.18800000    3.93100000
O    0    0.72300000    3.39800000
C    0    1.65900000    4.89700000
C    0    2.58100000    3.71300000
C    0    2.46300000    6.12200000
H    0    -0.50300000    6.40600000
N    0    -0.88300000    3.42300000
C    0    -1.55400000    2.19500000
C    0    -1.95000000    2.29200000
O    0    -1.53277642    1.43240077
C    0    -2.80600000    1.89800000
C    0    -3.55600000    0.65300000
O    0    -2.28500000    1.52000000
H    0    -1.24100000    3.89100000
H    0    -3.00800000    1.32000000
N    0    1.01400000    10.43600000
C    0    2.09500000    9.55100000
C    0    1.51600000    8.22600000
O    0    0.52700000    7.75300000
C    0    3.08500000    9.27900000
C    0    3.77800000    10.52000000
O    0    3.99800000    11.51000000
O    0    4.10300000    10.44500000
N    0    2.13100000    7.61600000
C    0    1.53100000    6.43400000
C    0    1.87700000    5.15000000
O    0    2.72289012    4.35325186
C    0    1.89100000    6.33000000
C    0    1.02700000    5.35900000
C    0    -0.38000000    5.37600000
C    0    1.63100000    4.43000000
C    0    -1.17600000    4.47100000
C    0    0.83400000    3.52600000
C    0    -0.56900000    3.54700000
H    0    3.00500000    7.96600000
N    0    0.27700000    -3.99200000
C    0    1.51600000    -3.59100000
C    0    1.92100000    -4.54400000
O    0    2.13219232    -4.10503794
C    0    2.66100000    -3.46400000
H    0    0.28400000    -4.14200000
N    0    -1.14100000    -5.15100000
C    0    -1.35900000    -4.01700000
C    0    -0.18900000    -3.78800000
O    0    -0.40100000    -3.73500000
C    0    -1.64300000    -2.71500000
O    0    -1.71700000    -1.58600000
H    0    -1.12100000    -5.00100000
H    0    -1.89300000    -0.81000000
N    0    1.02700000    -3.64500000
C    0    2.22700000    -3.60700000
C    0    2.15000000    -4.60300000
O    0    2.21843886    -4.19282288
C    0    3.48500000    -3.94100000
O    0    3.88600000    -2.85300000
H    0    1.11900000    -3.56200000
H    0    4.66200000    -3.10400000
N    0    -1.02800000    -4.09500000
C    0    -0.97500000    -2.74100000
C    0    0.29300000    -2.42600000
O    0    0.24444955    -1.62582743
C    0    -1.09600000    -1.67900000
O    0    -1.98400000    -2.08900000
H    0    -2.02700000    -1.40600000
N    0    10.40400000    4.48700000
C    0    9.51300000    3.96100000
C    0    10.01100000    2.68400000
O    0    9.75761269    2.47363360
C    0    8.09700000    3.74000000
C    0    7.29300000    5.02900000
C    0    7.11600000    5.73500000
C    0    6.56100000    5.74000000
C    0    5.97800000    6.84800000
C    0    6.39700000    5.45700000
N    0    6.32600000    6.84500000
C    0    5.19100000    7.76200000
C    0    5.60800000    6.38000000
C    0    5.01400000    7.50000000
H    0    6.04600000    7.54200000
N    0    11.89900000    2.62200000
C    0    10.88900000    2.83900000
C    0    10.04300000    1.59400000
O    0    9.84700000    1.22000000
C    0    9.98700000    4.01200000
C    0    8.73100000    4.18700000
C    0    7.52800000    3.54000000
C    0    8.76100000    5.00300000
C    0    6.36600000    3.70800000
C    0    7.59800000    5.17000000
C    0    6.40100000    4.52200000
N    0    9.55500000    0.95100000
C    0    8.68400000    -0.21500000
C    0    9.37200000    -1.46500000
O    0    8.70709959    -2.33613321
C    0    7.96100000    -0.54700000
C    0    6.63000000    0.16800000
C    0    5.44000000    -0.38100000
C    0    6.57600000    1.38500000
C    0    4.20800000    0.28200000
C    0    5.34300000    2.04700000
C    0    4.15900000    1.49600000
H    0    9.78600000    1.26800000
N    0    9.75100000    -0.40100000
C    0    8.44500000    -0.62500000
C    0    8.26000000    -2.10700000
O    0    7.61100694    -2.43144890
C    0    7.28600000    -0.14100000
C    0    6.16100000    0.46200000
N    0    4.95800000    -0.04100000
O    0    6.37100000    1.32700000
H    0    9.78200000    0.04200000
H    0    4.85500000    -0.75000000
H    0    4.15800000    0.28900000
N    0    13.26000000    6.70200000
C    0    11.89600000    6.49100000
C    0    11.33400000    7.72200000
O    0    10.86100000    7.60700000
C    0    10.99500000    6.11200000
C    0    9.61600000    5.59800000
C    0    9.45600000    4.28100000
C    0    8.48700000    6.44000000
C    0    8.17700000    3.81000000
C    0    7.20800000    5.96900000
C    0    7.05100000    4.65300000
O    0    5.81000000    4.20100000
H    0    13.45500000    6.51300000
H    0    5.88300000    3.30400000
N    0    11.40500000    8.89500000
C    0    10.89200000    10.13300000
C    0    11.63800000    10.44900000
O    0    10.99396276    10.78700785
C    0    10.95400000    11.35900000
C    0    10.08800000    11.14900000
C    0    10.57600000    12.63700000
C    0    10.41400000    12.18600000
H    0    11.81300000    8.93800000
N    0    10.66100000    7.93800000
C    0    9.30600000    8.27300000
C    0    9.27400000    9.45900000
O    0    8.54024289    9.42240922
C    0    8.42100000    8.58600000
C    0    6.93700000    8.52000000
N    0    6.69400000    8.66800000
O    0    6.07000000    8.34700000
H    0    7.45200000    8.80700000
H    0    5.75400000    8.64000000
N    0    7.69300000    10.81800000
C    0    7.00800000    12.07400000
C    0    7.62800000    12.81600000
O    0    6.88754382    13.24873172
C    0    6.96500000    12.98300000
C    0    6.00100000    12.52500000
C    0    5.04100000    11.52200000
C    0    6.05700000    13.10600000
C    0    4.14700000    11.10300000
C    0    5.16300000    12.68600000
C    0    4.20800000    11.68400000
O    0    3.34500000    11.28000000
H    0    2.77500000    10.60500000
H    0    -4.04921398    13.08238508
H    0    -4.67717100    14.51641201
H    0    -3.00520589    15.15438130
H    0    -2.11495096    12.18623635
H    0    0.24227860    11.70221080
H    0    1.70901225    14.05821504
H    0    2.11922550    12.58431311
H    0    -5.10958421    13.09656563
H    0    -6.18951820    11.24426742
H    0    -6.88023165    12.72703508
H    0    -4.10240438    8.31727024
H    0    -2.13990920    6.83952632
H    0    -2.93120785    6.49942081
H    0    -1.43855730    7.40743072
H    0    -2.37265575    9.48878861
H    0    -1.00368506    8.55032281
H    0    -1.02229032    10.38414341
H    0    -1.30065446    9.92695955
H    0    -3.50313851    8.57372013
H    0    -3.27344701    10.27785275
H    0    -3.79046944    4.81989464
H    0    -2.88132564    2.42982237
H    0    -3.42596423    2.91044799
H    0    -1.71744588    2.87528396
H    0    -2.93583083    4.46987926
H    0    -1.36058334    4.00999403
H    0    -1.83426782    5.69182546
H    0    -1.01465157    5.17737068
H    0    1.01885403    4.61850356
H    0    3.05412397    3.39208153
H    0    2.00639881    2.90744034
H    0    3.32721388    4.01152997
H    0    2.60638895    6.09494429
H    0    3.41475912    6.11693926
H    0    1.93047385    7.01134511
H    0    1.38136807    5.68591694
H    0    -1.10189956    5.80474441
H    0    -3.46254356    2.74243942
H    0    -4.12914243    0.24830212
H    0    -4.21053082    0.91864975
H    0    -2.85260983    -0.07826179
H    0    -0.85327760    1.39414537
H    0    3.86461968    8.68392789
H    0    2.49423856    8.88991282
H    0    2.60928303    10.03387012
H    0    0.21207006    10.15927154
H    0    1.38038471    11.36166408
H    0    2.88181315    5.92723282
H    0    1.69344066    7.29718213
H    0    2.69536603    4.41232864
H    0    -0.84216247    6.07607434
H    0    1.29460324    2.82403869
H    0    -2.24043758    4.48567873
H    0    -1.17299187    2.86271029
H    0    0.47090038    6.55907310
H    0    3.70085976    -3.24341137
H    0    2.97396150    -4.35014480
H    0    2.59235268    -2.44550612
H    0    1.32718855    -2.63819029
H    0    0.05748238    -4.88585048
H    0    -0.79578521    -2.55158337
H    0    -2.61697213    -2.82768024
H    0    -2.22179977    -4.27618836
H    0    -0.22222256    -5.47603455
H    0    4.27508904    -4.08596809
H    0    3.20732060    -4.73429629
H    0    2.28601913    -2.61192910
H    0    -1.54352910    -0.82037549
H    0    -0.12754449    -1.60301806
H    0    -0.34662791    -4.60878122
H    0    -1.99332810    -4.35118389
H    0    7.57295105    3.17413694
H    0    8.23396338    3.33771577
H    0    7.53454877    5.47126837
H    0    6.83987180    4.60394301
H    0    5.45161084    6.21083007
H    0    4.74905907    8.61430116
H    0    4.42390358    8.15933820
H    0    9.49936192    4.70888366
H    0    10.07691239    5.41742020
H    0    11.32689384    4.33706972
H    0    9.64242325    3.76956384
H    0    10.56816478    4.89595560
H    0    7.49923653    2.92169105
H    0    9.66822924    5.49555051
H    0    5.45729234    3.21772779
H    0    7.62448668    5.78829424
H    0    5.51957556    4.64759770
H    0    11.40141485    3.06430343
H    0    11.70163847    1.71156607
H    0    12.77546649    2.80305351
H    0    7.72382549    -1.58892215
H    0    8.59881358    -0.18401922
H    0    5.47437824    -1.30196245
H    0    7.47221911    1.80468513
H    0    3.31036812    -0.13622602
H    0    5.30604046    2.96788032
H    0    3.22458676    1.99851998
H    0    7.98430758    0.07773851
H    0    6.87954503    -1.01286840
H    0    7.67623238    0.65538244
H    0    8.43153368    -0.05219069
H    0    10.23212586    0.22865485
H    0    10.82353001    7.02274132
H    0    11.48341375    5.29167777
H    0    8.60300735    7.43843900
H    0    10.30739421    3.63979199
H    0    6.35609487    6.60969801
H    0    8.06007012    2.81274147
H    0    11.91507825    5.69394214
H    0    13.42117070    7.68317146
H    0    11.96377456    11.47520086
H    0    10.60562910    13.46861851
H    0    11.26944617    12.79928168
H    0    9.58861537    12.53671717
H    0    10.36257251    10.19669484
H    0    9.07738430    11.33152691
H    0    10.26899780    11.75292732
H    0    11.43234245    12.49818434
H    0    9.76861386    13.03200617
H    0    9.86060465    9.93887068
H    0    8.62207071    9.60229423
H    0    8.59293760    7.80229964
H    0    8.91737350    7.41174083
H    0    11.22770363    8.64531280
H    0    10.77162786    6.98140243
H    0    6.58856481    13.92400982
H    0    7.94042976    12.92375297
H    0    4.99275359    11.07979391
H    0    6.77950170    13.86649949
H    0    3.42216915    10.34442987
H    0    5.20942048    13.12797712
H    0    6.00996787    11.82029478
H    0    8.56233679    10.86975406
H    0    7.03213942    10.10262011
H    0    10.57531471    1.96829721
H    0    -5.01697439    8.16041206
H    0    -3.58511748    5.76712442
H    0    8.68288166    -2.86410449
H    0    12.70527926    10.38172213
H    0    1.40094627    4.92497191
H    0    9.87545908    10.32195721
H    0    8.68677124    12.96167581
H    0    10.42144930    -1.60381834
H    0    -2.57870993    3.09000930
H    0    1.22109753    -2.88607042
H    0    2.03796147    -5.64826842
H    0    2.02689980    -5.58898759
