40
15 atoms in first molecule, -1, 0 charges
 N -0.38202200    8.71391400   -1.3172030
 C  0.96995800    8.78221300   -1.8586840
 C  1.39316700   10.17957700   -2.3267140
 O  0.56151100   10.99410400   -2.7373960
 C  1.25112400    7.80943600   -3.0369950
 C  1.24784600    6.30137000   -2.6526770
 O  1.44416200    5.48801600   -3.5644400
 O  1.06149900    6.02447900   -1.4277030
 H -0.53330800    7.72193000   -1.1187390
 H -1.03934000    8.95664700   -2.0634920
 H  1.66394000    8.48966800   -1.0504950
 H  2.24029500    8.01825000   -3.4850580
 H  0.50359700    7.96599500   -3.8378290
 O  2.73757400   10.41038000   -2.3453490
 H  2.86299700   11.28836700   -2.7433350
 C -1.41961600   -2.37648200   -1.7103240
 C -0.69388500   -1.63591900   -2.6722280
 C  0.20424800   -0.17914500   -0.9337190
 C -0.46707100   -0.96118800    0.0229300
 O -2.24922700   -3.34427500   -2.1898690
 H -0.41384900   -0.68646400    1.0823550
 H -2.92810100   -3.62663000   -1.5237080
 C -1.26243100   -2.05903900   -0.3574050
 H -1.81392400   -2.63480900    0.3929740
 C  0.12187100   -0.57062000   -2.2847630
 H  0.62888800    0.02094000   -3.0493640
 O -0.88808000   -1.99670500   -3.9720860
 H -0.41127000   -1.38547900   -4.5489500
 C  0.95517100    1.07176400   -0.5045770
 H  0.58367600    1.34958700    0.4978380
 H  2.03454100    0.84238500   -0.4266900
 C  0.83604800    2.32271000   -1.4269680
 H  1.57407900    2.24775100   -2.2380820
 H  2.09759200    3.39789800   -0.1302700
 H  1.16585000    4.46739300   -1.0980480
 H  0.46720700    3.59452600    0.1343600
 N  1.19012600    3.50710700   -0.5915680
 C -0.58050500    2.61170300   -2.0299970
 O -0.82036400    2.10468700   -3.1414110
 O -1.32248700    3.33390300   -1.3288250

